35
Life would be tragic if it weren't funny
Rh 0.638963 0.696597 -1.618855
C -1.000408 -0.177907 -0.510389
O -1.007914 1.452599 -2.804769
C -1.620027 1.816585 -1.797035
C -1.205447 1.204605 -0.494451
C 2.101053 0.872446 -0.106682
C 3.085596 1.806123 -0.825909
C 2.206764 -0.380232 -0.736370
H 1.675883 1.077719 0.880356
C 4.199947 0.812979 -1.213009
C 2.373076 1.968570 -2.171289
H 3.359905 2.728301 -0.300096
C 3.229428 -0.190128 -1.870364
H 1.915555 -1.349871 -0.323371
H 4.727545 0.395058 -0.338504
H 4.926788 1.237501 -1.927135
C 2.455692 0.744568 -2.821344
H 2.034152 2.917024 -2.597380
H 3.640258 -1.103988 -2.315736
H 2.235698 0.543526 -3.873316
H -1.419172 -0.798463 -1.314197
H -0.757051 -0.692824 0.424814
C -1.150558 2.056502 0.707269
C -1.482468 1.538722 1.969302
C -0.750794 3.402304 0.604237
C -1.411097 2.346134 3.100910
H -1.824668 0.504520 2.063299
C -0.681449 4.205308 1.737426
H -0.469892 3.821003 -0.368283
C -1.009984 3.677891 2.987995
H -1.681466 1.935537 4.077521
H -0.365103 5.247955 1.646575
H -0.958981 4.310812 3.878350
O -2.535180 2.740662 -1.864804
H -2.926842 2.924663 -0.987765
