19

C         -1.00041       -0.17791       -0.51039
O         -1.00791        1.45260       -2.80477
C         -1.62003        1.81658       -1.79703
C         -1.20545        1.20460       -0.49445
H         -1.41917       -0.79846       -1.31420
H         -0.75705       -0.69282        0.42481
C         -1.15056        2.05650        0.70727
C         -1.48247        1.53872        1.96930
C         -0.75079        3.40230        0.60424
C         -1.41110        2.34613        3.10091
H         -1.82467        0.50452        2.06330
C         -0.68145        4.20531        1.73743
H         -0.46989        3.82100       -0.36828
C         -1.00998        3.67789        2.98800
H         -1.68147        1.93554        4.07752
H         -0.36510        5.24796        1.64657
H         -0.95898        4.31081        3.87835
O         -2.53518        2.74066       -1.86480
H         -2.92684        2.92466       -0.98777
