29

O -2.978783148184236 1.1313970747325164 -0.13851512722616197
C -1.9231620040021724 1.4594474577962593 0.4448980780721412
O -1.8748944250415878 2.619861803033954 1.2025341247307142
C -3.074887204305779 3.4138262880663377 1.2810745784418032
C -0.7566348452529181 0.5629076583245194 0.2873838201730499
N -0.8488896867176522 -0.6191458510704526 -0.4847604927564864
C -1.2663258216063034 -0.5398168457187016 -1.840533556833328
C -1.3667182796602202 -1.7852065308230127 -2.670712648800317
O -1.5664342971666194 0.5395968414884798 -2.407010371705793
C 0.3965780334354351 0.8266996105506025 0.8634272451218737
C 1.5114919678983314 -0.08012333551347953 0.6780482215287935
C 1.960199626842207 -0.498915552345822 -0.5376809098568074
C 3.0059192312087615 -1.397892889755248 -0.6002478044592011
C 3.5967199129756806 -1.8730888353489317 0.5658942768046619
C 3.139335154559324 -1.445752056046381 1.802312509218339
C 2.110753870166922 -0.5615964928792233 1.8491575216188074
H -3.946478690998564 2.7815543320186666 1.0134905383292554
H -3.25037309531719 3.781215474010105 2.3104009606017337
H -3.0270807603887357 4.26609982171672 0.5687506702700454
H -0.6213238203039705 -1.5654114346564822 -0.10423948264180684
H -0.3926554372869947 -2.194607315791427 -2.9326194802858123
H -1.9791532742579578 -2.5389266163212874 -2.0982062110958677
H -1.9312471864627916 -1.5765612158080575 -3.5949983569158985
H 0.48721751562682747 1.7240350438283525 1.4615859319901254
H 1.4932769249706597 -0.102864885322267 -1.4226501990787066
H 3.3837934808118795 -1.7460357919413247 -1.5335765943055824
H 4.409045508651569 -2.5736433702062316 0.5035919360696821
H 3.5766803287579076 -1.7961630127952988 2.7318790074078008
H 1.734030421045417 -0.21088937322534038 2.8013218155820074
