19

C -0.07943258913116437 -1.8513533361685421 -1.6336819704652001
C -0.2646965382938692 -0.5845823165958272 -1.3124209876088324
C -0.7446911169530198 0.3082135570431845 -2.3194300437752413
O -0.9453613306810515 1.6356191201111525 -2.0565741700385174
O -0.9938615032548914 -0.11230877856463967 -3.4757294845454516
C 0.04559858491578354 -0.14038545906648336 0.018063105942588083
C 1.0166050835645184 -0.8366378346473814 0.7451933373602035
C 1.344473014814989 -0.48219305401545776 2.038232417371748
C 0.6856750074097732 0.5855940725599538 2.6019979948280856
C -0.26600938437279265 1.2776232105075744 1.9065020276237459
C -0.5949939247644301 0.9173861878641516 0.6022135788927674
H 0.2784307053295261 -2.5699720580357424 -0.921296030712823
H -0.27815683225125293 -2.227392293358579 -2.62709788222788
H -1.5924328675467838 2.2395928276433645 -2.56493561624203
H 1.5484665765272454 -1.6768008067958513 0.31102656250654254
H 2.0891046221549043 -1.0090976168539394 2.6089357795600274
H 0.9259858540387734 0.8904701467643893 3.6291436195648057
H -0.7981621693597497 2.1296180809022105 2.342857953232704
H -1.3765411921434723 1.5066063506804213 0.10699980874065716
